WS_Concat='"H:\3DPS-256(1)\." "C:\Program Files\Dassault Systemes\B19\."'
RTViewDataListPath='H:\3DPS-256(1)\.\CAATreeCtrlFrm\various\intel_a\ktTreeNodeInterface.m\module.data'
MKMK_DEVSTAGE=''
BUILT_OBJECT_TYPE='SHARED LIBRARY'
MKMK_BSCMAKE=''
WSEKEY='M_ktTreeNodeInterface'
MOD_Included='M_ktTreeNodeInterface'
F_CAATreeCtrlFrm='mkFramework "H:\3DPS-256(1)\.\CAATreeCtrlFrm" CAATreeCtrlFrm CAATreeCtrlFrm - -'
MODNAME='ktTreeNodeInterface'
CONTNAME='ktTreeNodeInterface'
FWmkHLpath='H:\3DPS-256(1)\.\CAATreeCtrlFrm\IdentityCard\Objects\intel_a\.mkHLpath.mk'
M_JS0GROUP='mkSharedLibrary "C:\Program Files\Dassault Systemes\B19\.\System\JS0GROUP.m" JS0GROUP JS0GROUP - -'
WIZARD_LINK_MODULES='JS0GROUP JS0FM JS0GROUP ktTreeCtrlFrameUUID'
MKMK_WARNING=''
M_ktTreeCtrlFrameUUID='mkSharedLibrary "H:\3DPS-256(1)\.\CAATreeCtrlFrm\ktTreeCtrlFrameUUID.m" ktTreeCtrlFrameUUID ktTreeCtrlFrameUUID - -'
M_JS0FM='mkSharedLibrary "C:\Program Files\Dassault Systemes\B19\.\System\JS0FM.m" JS0FM JS0FM - -'
FWDNAME='CAATreeCtrlFrm'
MKMK_ZIPJAVASOURCE=''
M_ktTreeNodeInterface='mkSharedLibrary "H:\3DPS-256(1)\.\CAATreeCtrlFrm\ktTreeNodeInterface.m" ktTreeNodeInterface ktTreeNodeInterface - -'
GPrivate='H:\3DPS-256(1)\.\CAATreeCtrlFrm\PrivateGenerated\intel_a'
IPublic='H:\3DPS-256(1)\.\CAATreeCtrlFrm\PublicInterfaces'
IPrivate='H:\3DPS-256(1)\.\CAATreeCtrlFrm\PrivateInterfaces'
GPublic='H:\3DPS-256(1)\.\CAATreeCtrlFrm\PublicGenerated\intel_a'
MKMK_DEBUGEDITANDCONTINUE=''
GProtected='H:\3DPS-256(1)\.\CAATreeCtrlFrm\ProtectedGenerated\intel_a'
WSROOT='H:\3DPS-256(1)\.'
IProtected='H:\3DPS-256(1)\.\CAATreeCtrlFrm\ProtectedInterfaces'
MKMK_DATA_VERSION='1.0.0'
STEPS_TO_CLEAN=''
NAME='H:\3DPS-256(1)\.\CAATreeCtrlFrm\ktTreeNodeInterface.m\Objects\intel_a\.mkdata.mk'
STEPS_TO_BUILD='grammar1st grammar2nd sourcecheck caacheck typelibgrammar compilation sourceruler globalresource cpponly link1st link2nd'
FWNAME='CAATreeCtrlFrm'
MODPATH='H:\3DPS-256(1)\.\CAATreeCtrlFrm\ktTreeNodeInterface.m'
FW_AllPreq='Administration,30CC2151;AdvancedMathematics,30DD2151;ApplicationFrame,31ED2151;AutomationInterfaces,30DD2151;BatchInfrastructure,30DD2151;CAT3DXmlBaseServices,30DD2151;CAT3DXmlExportTools,30DD2151;CAT3DXmlInterfaces,30DD2151;CATDataCompatibilityInfra,30DD2151;CATGraphicProperties,30DD2151;CATIAApplicationFrame,31DD2151;CATIADataBasics,30DD2151;CATIADataMacFortran,30DD2151;CATImmWtpInterfaces,30DD2151;CATJavaBridge,30DD2151;CATMatInterfaces,30DD2151;CATPDMBase,30DD2151;CATPDMBaseInterfaces,30DD2151;CATPLMDictionary,30DD2151;CATRmaInterfaces,30DD2151;CATSmarTeamIntegInterfaces,30DD2151;CATSubdivisionApproximation,30DD2151;CATSubdivisionMeshOperators,30DD2151;CATSubdivisionObjects,30DD2151;CATTechnologicalPackageUIItf,30DD2151;CATV4System,30DD2151;CATVirtualVaultSystem,30DD2151;CATXDocLinkInterfaces,30DD2151;CORBARuntime,30DD2151;Communications,30DD2151;ComponentsCatalogs,30DD2151;ComponentsCatalogsInterfaces,30DD2151;DMAPSInterfaces,30DD2151;DNBDpmInterfaces,30DD2151;DNBGanttChart,30DD2151;DNBGraphEditor,30DD2151;DNBResourceBehaviorInterfaces,30DD2151;DNBStateInterfaces,30DD2151;DNBStateModeler,30DD2151;Dialog,31DD2151;DialogEngine,31DD2151;ENOVaultClientCPP,30EE2151;FileMenu,30DD2151;GenericNaming,30DD2151;GeometricObjects,30DD2151;GeometricObjectsCGM,30DD2151;GeometricOperators,30DD2151;Graph,30DD2151;HLRBase,30DD2151;InfInterfaces,30DD2151;InteractiveInterfaces,30DD2151;KnowledgeInterfaces,30DD2151;KnowledgeModeler,30DD2151;LiteralFeatures,30DD2151;LiteralsEditor,30DD2151;Mainwin,30DD2151;Mathematics,31DD2151;MecModInterfaces,30DD2151;Multimedia,30DD2151;NewTopologicalObjects,30DD2151;ObjectModelerBase,31DC2151;ObjectModelerBaseUI,30DD2151;ObjectModelerCATIA,30DD2151;ObjectModelerCollection,30CC2151;ObjectModelerInterfaces,30DD2151;ObjectModelerNavigator,30DD2151;ObjectModelerSystem,30DD2151;ObjectSpecsModeler,30DD2151;PolygonalTools,30DD2151;PolyhedralInterfaces,30DD2151;PolyhedralMathematics,30DD2151;PolyhedralObjects,30DD2151;PolyhedralOperators,30DD2151;PolyhedralVisualization,30DD2151;Print,30DD2151;PrintBase,30DD2151;ProcessPlatformBase,30DD2151;ProcessPlatformVisu,31DD2151;ProductStructure,30DD2151;ProductStructureInterfaces,30DD2151;SketcherInterfaces,30DD2151;SpecialAPI,30DD2151;System,31DD2151;Tessellation,30DD2151;VBA,30DD2151;Visualization,30DD2151;VisualizationBase,30DD2151;XMLParser,30DD2151;'
FW_INCPATH='"H:\3DPS-256(1)\.\CAATreeCtrlFrm\PrivateInterfaces" "H:\3DPS-256(1)\.\CAATreeCtrlFrm\PrivateGenerated\intel_a" "H:\3DPS-256(1)\.\CAATreeCtrlFrm\ProtectedInterfaces" "H:\3DPS-256(1)\.\CAATreeCtrlFrm\ProtectedGenerated\intel_a" "H:\3DPS-256(1)\.\CAATreeCtrlFrm\PublicInterfaces" "H:\3DPS-256(1)\.\CAATreeCtrlFrm\PublicGenerated\intel_a"'
WSENAME_msg='CAATreeCtrlFrm\ktTreeNodeInterface.m'
MOD_Container='ktTreeNodeInterface.m'
MOD_LinkWith='M_JS0GROUP M_JS0FM M_ktTreeCtrlFrameUUID'
REAL_LINK_WITH='JS0GROUP JS0FM ktTreeCtrlFrameUUID'
MKMK_DEBUG='YES'
WSPATH='H:\3DPS-256(1)\.'
GLocal='H:\3DPS-256(1)\.\CAATreeCtrlFrm\ktTreeNodeInterface.m\LocalGenerated\intel_a'
ILocal='H:\3DPS-256(1)\.\CAATreeCtrlFrm\ktTreeNodeInterface.m\LocalInterfaces'
FWCOMPANYNAME='""'
MOD_INCPATH='"H:\3DPS-256(1)\.\CAATreeCtrlFrm\ktTreeNodeInterface.m\src" "H:\3DPS-256(1)\.\CAATreeCtrlFrm\ktTreeNodeInterface.m\LocalInterfaces" "H:\3DPS-256(1)\.\CAATreeCtrlFrm\ktTreeNodeInterface.m\LocalGenerated\intel_a"'
FWPATH='H:\3DPS-256(1)\.\CAATreeCtrlFrm'
FWIDENT='caatreectrlfrm'
LINK_WITH='JS0GROUP JS0FM JS0GROUP ktTreeCtrlFrameUUID'
