WS_Concat='"H:\3DPS-256(1)\." "C:\Program Files\Dassault Systemes\B19\."'
RTViewDataListPath='H:\3DPS-256(1)\.\AssemblyProcessFrm\various\intel_a\ProcessModelMdl.m\module.data'
MKMK_DEVSTAGE=''
BUILT_OBJECT_TYPE='SHARED LIBRARY'
MKMK_BSCMAKE=''
WSEKEY='M_ProcessModelMdl'
MOD_Included='M_ProcessModelMdl'
MODNAME='ProcessModelMdl'
CONTNAME='ProcessModelMdl'
FWmkHLpath='H:\3DPS-256(1)\.\AssemblyProcessFrm\IdentityCard\Objects\intel_a\.mkHLpath.mk'
M_JS0GROUP='mkSharedLibrary "C:\Program Files\Dassault Systemes\B19\.\System\JS0GROUP.m" JS0GROUP JS0GROUP - -'
M_PPRManagerMdl='mkSharedLibrary "H:\3DPS-256(1)\.\AssemblyProcessFrm\PPRManagerMdl.m" PPRManagerMdl PPRManagerMdl - -'
WIZARD_LINK_MODULES='JS0GROUP PPRManagerMdl'
F_AssemblyProcessFrm='mkFramework "H:\3DPS-256(1)\.\AssemblyProcessFrm" AssemblyProcessFrm AssemblyProcessFrm - -'
MKMK_WARNING=''
FWDNAME='AssemblyProcessFrm'
MKMK_ZIPJAVASOURCE=''
GPrivate='H:\3DPS-256(1)\.\AssemblyProcessFrm\PrivateGenerated\intel_a'
IPublic='H:\3DPS-256(1)\.\AssemblyProcessFrm\PublicInterfaces'
IPrivate='H:\3DPS-256(1)\.\AssemblyProcessFrm\PrivateInterfaces'
GPublic='H:\3DPS-256(1)\.\AssemblyProcessFrm\PublicGenerated\intel_a'
MKMK_DEBUGEDITANDCONTINUE=''
GProtected='H:\3DPS-256(1)\.\AssemblyProcessFrm\ProtectedGenerated\intel_a'
WSROOT='H:\3DPS-256(1)\.'
IProtected='H:\3DPS-256(1)\.\AssemblyProcessFrm\ProtectedInterfaces'
MKMK_DATA_VERSION='1.0.0'
STEPS_TO_CLEAN=''
NAME='H:\3DPS-256(1)\.\AssemblyProcessFrm\ProcessModelMdl.m\Objects\intel_a\.mkdata.mk'
STEPS_TO_BUILD='grammar1st grammar2nd sourcecheck caacheck typelibgrammar compilation sourceruler globalresource cpponly link1st link2nd'
FWNAME='AssemblyProcessFrm'
MODPATH='H:\3DPS-256(1)\.\AssemblyProcessFrm\ProcessModelMdl.m'
FW_AllPreq='Administration,30CC2151;AdvancedMathematics,30DD2151;AdvancedTopologicalOpe,30DD2151;ApplicationFrame,31ED2151;AutomationInterfaces,31DD2151;BasicTopologicalOpe,30DD2151;BatchInfrastructure,30DD2151;CAATreeCtrlFrm,11EE2151;CAT3DXmlBaseServices,30DD2151;CAT3DXmlExportTools,30DD2151;CAT3DXmlInterfaces,30DD2151;CATAssemblyInterfaces,30DD2151;CATCDS,30DD2151;CATCDSUtilities,30DD2151;CATCGMSkmDataItf,30DD2151;CATCloudBasicResources,30DD2151;CATDataCompatibilityInfra,30DD2151;CATElfiniOpenSoftware,30DD2151;CATFuzzyOperators,30DD2151;CATGraphicProperties,30DD2151;CATIAApplicationFrame,31DD2151;CATIADataBasics,30DD2151;CATIADataMacFortran,30DD2151;CATImmWtpInterfaces,30DD2151;CATJavaBridge,30DD2151;CATMatInterfaces,30DD2151;CATPDMBase,30DD2151;CATPDMBaseInterfaces,30DD2151;CATPLMDictionary,30DD2151;CATRmaInterfaces,30DD2151;CATShfInterfaces,30DD2151;CATShmInterfaces,30DD2151;CATSmarTeamIntegInterfaces,30DD2151;CATSubdivisionApproximation,30DD2151;CATSubdivisionMeshOperators,30DD2151;CATSubdivisionObjects,30DD2151;CATTPSInterfaces,30DD2151;CATTTRSInterfaces,30DD2151;CATTechResultInterfaces,30DD2151;CATTechnologicalPackageUIItf,30DD2151;CATV4DataAdmin,30DD2151;CATV4System,30DD2151;CATVirtualVaultSystem,30DD2151;CATWBx,30DD2151;CATXDocLinkInterfaces,30DD2151;CATxPDMInterfaces,31DD2151;CGMV5Interoperability,30DD2151;CGMV5SpecsQuery,30DD2151;CORBARuntime,30DD2151;Communications,30DD2151;ComponentsCatalogs,30DD2151;ComponentsCatalogsInterfaces,30DD2151;ConstraintModeler,30DD2151;ConstraintModelerInterfaces,30DD2151;ConstraintSolver,30DD2151;CurveBasedGeoOperators,30DD2151;CurveBasedInfrastructure,30DD2151;CurveBasedMathematics,30DD2151;CurveBasedTopoOperators,30DD2151;DCM2D,30DD2151;DCM3D,30DD2151;DMAPSInterfaces,31DD2151;DNBAsyActivityInterfaces,31DD2151;DNBDpmInterfaces,30DD2151;DNBGanttChart,30DD2151;DNBGraphEditor,30DD2151;DNBResourceBehaviorInterfaces,30DD2151;DNBSimActivityInterfaces,30DD2151;DNBStateInterfaces,30DD2151;DNBStateModeler,30DD2151;Dialog,31DD2151;DialogEngine,31DD2151;DraftingInterfaces,30DD2151;ENOVaultClientCPP,30EE2151;FeatureCommands,30DD2151;FileMenu,30DD2151;FittingInterfaces,31DD2151;FreeFormOperators,30DD2151;FreeStyleAnalysisInterface,30DD2151;GSMInterfaces,30DD2151;GenericNaming,30DC2151;GeometricObjects,30DD2151;GeometricObjectsCGM,30DD2151;GeometricOperators,30DD2151;GeometryVisualization,30DD2151;Graph,30DD2151;HLRBase,30DD2151;InfInterfaces,31DD2151;Infra2DInterfaces,30DD2151;InteractiveInterfaces,30DD2151;KnowledgeInterfaces,31DD2151;KnowledgeModeler,30DD2151;LiteralFeatures,30DD2151;LiteralsEditor,30DD2151;Mainwin,30DD2151;Mathematics,31DD2151;MeasureGeometryInterfaces,30DD2151;MecModInterfaces,31DD2151;MechanicalCommands,30DD2151;MechanicalModeler,30CC2151;MechanicalModelerUI,31DD2151;Multimedia,30DD2151;Navigator2Interfaces,30DD2151;NavigatorInterfaces,30DD2151;NewTopologicalObjects,30DC2151;ObjectModelerBase,31DC2151;ObjectModelerBaseUI,30DD2151;ObjectModelerCATIA,30DD2151;ObjectModelerCATSDM,30DD2151;ObjectModelerCollection,30CC2151;ObjectModelerInterfaces,30DD2151;ObjectModelerNavigator,31DD2151;ObjectModelerSDM,30DD2151;ObjectModelerSystem,30DD2151;ObjectSpecsModeler,31DD2151;PartInterfaces,30DD2151;PolygonalTools,30DD2151;PolyhedralInterfaces,30DD2151;PolyhedralMathematics,30DD2151;PolyhedralObjects,30DD2151;PolyhedralOperators,30DD2151;PolyhedralVisuOperators,30DD2151;PolyhedralVisualization,30DD2151;Print,31DD2151;PrintBase,31DD2151;ProcessPlatformBase,30DD2151;ProcessPlatformVisu,31DD2151;ProductStructure,31DD2151;ProductStructureInterfaces,30DD2151;ProductStructureUI,31DD2151;SDMBinaryForm,30DD2151;SDMRuntime,30DD2151;SDMSTEPForm,30DD2151;SIMInterfaces,30DD2151;SimulationInterfaces,31DD2151;SketcherInterfaces,30DD2151;SketcherModeler,30DD2151;SketcherToolsUI,30DD2151;SpaceAnalysisInterfaces,30DD2151;SpecialAPI,30DD2151;SurfacicGeoOperators,30DD2151;SurfacicInfrastructure,30DD2151;SurfacicMathematics,30DD2151;SurfacicTopoOperators,30DD2151;System,31DD2151;Tessellation,30DD2151;TopologicalOperators,30DD2151;VBA,30DD2151;Visualization,31DD2151;VisualizationBase,30DD2151;XMLParser,31DD2151;XlatorCGM,30DD2151;'
FW_INCPATH='"H:\3DPS-256(1)\.\AssemblyProcessFrm\PrivateInterfaces" "H:\3DPS-256(1)\.\AssemblyProcessFrm\PrivateGenerated\intel_a" "H:\3DPS-256(1)\.\AssemblyProcessFrm\ProtectedInterfaces" "H:\3DPS-256(1)\.\AssemblyProcessFrm\ProtectedGenerated\intel_a" "H:\3DPS-256(1)\.\AssemblyProcessFrm\PublicInterfaces" "H:\3DPS-256(1)\.\AssemblyProcessFrm\PublicGenerated\intel_a"'
WSENAME_msg='AssemblyProcessFrm\ProcessModelMdl.m'
MOD_Container='ProcessModelMdl.m'
MOD_LinkWith='M_JS0GROUP M_PPRManagerMdl'
REAL_LINK_WITH='JS0GROUP PPRManagerMdl'
MKMK_DEBUG='YES'
WSPATH='H:\3DPS-256(1)\.'
GLocal='H:\3DPS-256(1)\.\AssemblyProcessFrm\ProcessModelMdl.m\LocalGenerated\intel_a'
ILocal='H:\3DPS-256(1)\.\AssemblyProcessFrm\ProcessModelMdl.m\LocalInterfaces'
FWCOMPANYNAME='""'
M_ProcessModelMdl='mkSharedLibrary "H:\3DPS-256(1)\.\AssemblyProcessFrm\ProcessModelMdl.m" ProcessModelMdl ProcessModelMdl - -'
MOD_INCPATH='"H:\3DPS-256(1)\.\AssemblyProcessFrm\ProcessModelMdl.m\src" "H:\3DPS-256(1)\.\AssemblyProcessFrm\ProcessModelMdl.m\LocalInterfaces" "H:\3DPS-256(1)\.\AssemblyProcessFrm\ProcessModelMdl.m\LocalGenerated\intel_a"'
FWPATH='H:\3DPS-256(1)\.\AssemblyProcessFrm'
FWIDENT='assemblyprocessfrm'
LINK_WITH='JS0GROUP PPRManagerMdl'
